src/test/resources/netPositionsData/20190618_0030_2D2_AT1.uct
##C 2007.05.01

##N
##ZAT
ODU SL11 SHADOW       1 2 400.00 1000.00   10.00   10.00   10.00  647.06   20.00
OLI_SO21 SHADOW       1 2 400.00  200.00   10.00   10.00   10.00  872.33   20.00
##ZXX
XDU_SL11 CORE         1 0 400.00  500.00   10.00   10.00   10.00   20.00   20.00
XLI_SO21 OUT          1 0 400.00   50.00   10.00   10.00   10.00   20.00   20.00
##L
ODU SL11 XDU_SL11 1 0  20.00  20.00   20.00   5000
OLI_SO21 XLI_SO21 1 0  20.00  20.00   20.00   5000
##T
##R
